<?xml version="1.0" encoding="UTF-8"?>

<!-- generated on 10/23/18 12:48:20 by Eclipse SUMO netconvert Version 1.0.0
<configuration xmlns:xsi="http://www.w3.org/2001/XMLSchema-instance" xsi:noNamespaceSchemaLocation="http://sumo.dlr.de/xsd/netconvertConfiguration.xsd">

    <input>
        <node-files value="test.node.xml"/>
        <edge-files value="test.edg.xml"/>
        <connection-files value="test.con.xml"/>
    </input>

    <output>
        <output-file value="test.net.xml"/>
    </output>

</configuration>
-->

<net version="1.0" junctionCornerDetail="5" limitTurnSpeed="5.50" xmlns:xsi="http://www.w3.org/2001/XMLSchema-instance" xsi:noNamespaceSchemaLocation="http://sumo.dlr.de/xsd/net_file.xsd">

    <location netOffset="350.00,250.00" convBoundary="0.00,0.00,650.00,550.00" origBoundary="-350.00,-250.00,300.00,300.00" projParameter="!"/>

    <edge id=":0_0" function="internal">
        <lane id=":0_0_0" index="0" speed="6.51" length="9.03" shape="342.00,263.60 341.65,261.15 340.60,259.40 338.85,258.35 336.40,258.00"/>
    </edge>
    <edge id=":0_1" function="internal">
        <lane id=":0_1_0" index="0" speed="7.33" length="11.73" shape="342.00,263.60 341.65,259.75 340.60,257.00 338.85,255.35 336.40,254.80"/>
    </edge>
    <edge id=":0_2" function="internal">
        <lane id=":0_2_0" index="0" speed="8.10" length="14.57" shape="342.00,263.60 341.65,258.35 340.60,254.60 338.85,252.35 336.40,251.60"/>
    </edge>
    <edge id=":0_3" function="internal">
        <lane id=":0_3_0" index="0" speed="45.00" length="27.37" shape="345.20,263.60 344.70,255.50 343.60,250.00 342.50,244.50 342.00,236.40"/>
        <lane id=":0_3_1" index="1" speed="45.00" length="27.37" shape="345.20,263.60 345.20,236.40"/>
        <lane id=":0_3_2" index="2" speed="45.00" length="27.37" shape="345.20,263.60 345.70,255.50 346.80,250.00 347.90,244.50 348.40,236.40"/>
    </edge>
    <edge id=":0_6" function="internal">
        <lane id=":0_6_0" index="0" speed="11.58" length="9.28" shape="348.40,263.60 349.87,256.01 350.63,254.67"/>
    </edge>
    <edge id=":0_7" function="internal">
        <lane id=":0_7_0" index="0" speed="11.36" length="10.78" shape="348.40,263.60 349.55,255.55 350.91,253.28"/>
    </edge>
    <edge id=":0_8" function="internal">
        <lane id=":0_8_0" index="0" speed="10.88" length="8.34" shape="348.40,263.60 349.55,256.95 350.49,255.66"/>
    </edge>
    <edge id=":0_39" function="internal">
        <lane id=":0_39_0" index="0" speed="11.58" length="21.59" shape="350.63,254.67 353.85,249.05 359.71,243.97 366.80,242.00"/>
    </edge>
    <edge id=":0_40" function="internal">
        <lane id=":0_40_0" index="0" speed="11.36" length="18.90" shape="350.91,253.28 353.00,249.80 358.75,246.35 366.80,245.20"/>
    </edge>
    <edge id=":0_41" function="internal">
        <lane id=":0_41_0" index="0" speed="10.88" length="18.80" shape="350.49,255.66 353.00,252.20 358.75,249.35 366.80,248.40"/>
    </edge>
    <edge id=":0_9" function="internal">
        <lane id=":0_9_0" index="0" speed="7.33" length="11.73" shape="366.80,258.00 362.95,258.35 360.20,259.40 358.55,261.15 358.00,263.60"/>
    </edge>
    <edge id=":0_10" function="internal">
        <lane id=":0_10_0" index="0" speed="8.10" length="14.57" shape="366.80,258.00 361.55,258.35 357.80,259.40 355.55,261.15 354.80,263.60"/>
    </edge>
    <edge id=":0_11" function="internal">
        <lane id=":0_11_0" index="0" speed="8.83" length="17.50" shape="366.80,258.00 360.15,258.35 355.40,259.40 352.55,261.15 351.60,263.60"/>
    </edge>
    <edge id=":0_12" function="internal">
        <lane id=":0_12_0" index="0" speed="45.00" length="30.55" shape="366.80,254.80 357.83,255.30 351.60,256.40 345.37,257.50 336.40,258.00"/>
        <lane id=":0_12_1" index="1" speed="45.00" length="30.55" shape="366.80,254.80 336.40,254.80"/>
        <lane id=":0_12_2" index="2" speed="45.00" length="30.55" shape="366.80,254.80 357.83,254.30 351.60,253.20 345.37,252.10 336.40,251.60"/>
    </edge>
    <edge id=":0_15" function="internal">
        <lane id=":0_15_0" index="0" speed="11.70" length="13.73" shape="366.80,251.60 358.71,250.63 353.45,248.75"/>
    </edge>
    <edge id=":0_16" function="internal">
        <lane id=":0_16_0" index="0" speed="11.24" length="11.59" shape="366.80,251.60 359.21,250.63 355.57,249.13"/>
    </edge>
    <edge id=":0_17" function="internal">
        <lane id=":0_17_0" index="0" speed="10.88" length="11.47" shape="366.80,251.60 358.75,250.65 355.73,249.15"/>
    </edge>
    <edge id=":0_42" function="internal">
        <lane id=":0_42_0" index="0" speed="11.70" length="17.81" shape="353.45,248.75 350.65,247.75 344.47,242.99 342.00,236.40"/>
    </edge>
    <edge id=":0_43" function="internal">
        <lane id=":0_43_0" index="0" speed="11.24" length="17.44" shape="355.57,249.13 352.25,247.75 347.17,242.99 345.20,236.40"/>
    </edge>
    <edge id=":0_44" function="internal">
        <lane id=":0_44_0" index="0" speed="10.88" length="15.67" shape="355.73,249.15 353.00,247.80 349.55,243.05 348.40,236.40"/>
    </edge>
    <edge id=":0_18" function="internal">
        <lane id=":0_18_0" index="0" speed="6.51" length="9.03" shape="361.20,236.40 361.55,238.85 362.60,240.60 364.35,241.65 366.80,242.00"/>
    </edge>
    <edge id=":0_19" function="internal">
        <lane id=":0_19_0" index="0" speed="7.33" length="11.73" shape="361.20,236.40 361.55,240.25 362.60,243.00 364.35,244.65 366.80,245.20"/>
    </edge>
    <edge id=":0_20" function="internal">
        <lane id=":0_20_0" index="0" speed="8.10" length="14.57" shape="361.20,236.40 361.55,241.65 362.60,245.40 364.35,247.65 366.80,248.40"/>
    </edge>
    <edge id=":0_21" function="internal">
        <lane id=":0_21_0" index="0" speed="45.00" length="27.49" shape="358.00,236.40 358.00,263.60"/>
        <lane id=":0_21_1" index="1" speed="45.00" length="27.49" shape="358.00,236.40 357.50,244.50 356.40,250.00 355.30,255.50 354.80,263.60"/>
        <lane id=":0_21_2" index="2" speed="45.00" length="27.49" shape="358.00,236.40 357.00,244.58 354.80,250.00 352.60,255.42 351.60,263.60"/>
        <lane id=":0_21_3" index="3" speed="45.00" length="27.49" shape="354.80,236.40 355.30,244.50 356.40,250.00 357.50,255.50 358.00,263.60"/>
        <lane id=":0_21_4" index="4" speed="45.00" length="27.49" shape="354.80,236.40 354.80,263.60"/>
        <lane id=":0_21_5" index="5" speed="45.00" length="27.49" shape="354.80,236.40 354.30,244.50 353.20,250.00 352.10,255.50 351.60,263.60"/>
    </edge>
    <edge id=":0_27" function="internal">
        <lane id=":0_27_0" index="0" speed="11.24" length="12.70" shape="351.60,236.40 350.63,243.99 348.70,248.65"/>
    </edge>
    <edge id=":0_28" function="internal">
        <lane id=":0_28_0" index="0" speed="10.88" length="12.29" shape="351.60,236.40 350.65,244.45 348.79,248.20"/>
    </edge>
    <edge id=":0_29" function="internal">
        <lane id=":0_29_0" index="0" speed="10.36" length="9.13" shape="351.60,236.40 350.65,243.05 349.41,245.12"/>
    </edge>
    <edge id=":0_45" function="internal">
        <lane id=":0_45_0" index="0" speed="11.24" length="16.33" shape="348.70,248.65 347.75,250.95 342.99,256.03 336.40,258.00"/>
    </edge>
    <edge id=":0_46" function="internal">
        <lane id=":0_46_0" index="0" speed="10.88" length="14.85" shape="348.79,248.20 347.80,250.20 343.05,253.65 336.40,254.80"/>
    </edge>
    <edge id=":0_47" function="internal">
        <lane id=":0_47_0" index="0" speed="10.36" length="15.38" shape="349.41,245.12 347.80,247.80 343.05,250.65 336.40,251.60"/>
    </edge>
    <edge id=":0_30" function="internal">
        <lane id=":0_30_0" index="0" speed="6.51" length="9.03" shape="336.40,242.00 338.85,241.65 340.60,240.60 341.65,238.85 342.00,236.40"/>
    </edge>
    <edge id=":0_31" function="internal">
        <lane id=":0_31_0" index="0" speed="7.33" length="11.73" shape="336.40,242.00 340.25,241.65 343.00,240.60 344.65,238.85 345.20,236.40"/>
    </edge>
    <edge id=":0_32" function="internal">
        <lane id=":0_32_0" index="0" speed="8.10" length="14.57" shape="336.40,242.00 341.65,241.65 345.40,240.60 347.65,238.85 348.40,236.40"/>
    </edge>
    <edge id=":0_33" function="internal">
        <lane id=":0_33_0" index="0" speed="45.00" length="30.55" shape="336.40,245.20 345.37,244.70 351.60,243.60 357.83,242.50 366.80,242.00"/>
        <lane id=":0_33_1" index="1" speed="45.00" length="30.55" shape="336.40,245.20 366.80,245.20"/>
        <lane id=":0_33_2" index="2" speed="45.00" length="30.55" shape="336.40,245.20 345.37,245.70 351.60,246.80 357.83,247.90 366.80,248.40"/>
    </edge>
    <edge id=":0_36" function="internal">
        <lane id=":0_36_0" index="0" speed="11.24" length="11.59" shape="336.40,248.40 343.99,249.37 347.63,250.87"/>
    </edge>
    <edge id=":0_37" function="internal">
        <lane id=":0_37_0" index="0" speed="10.88" length="11.47" shape="336.40,248.40 344.45,249.35 347.47,250.85"/>
    </edge>
    <edge id=":0_38" function="internal">
        <lane id=":0_38_0" index="0" speed="10.36" length="8.90" shape="336.40,248.40 343.05,249.35 344.92,250.47"/>
    </edge>
    <edge id=":0_48" function="internal">
        <lane id=":0_48_0" index="0" speed="11.24" length="17.44" shape="347.63,250.87 350.95,252.25 356.03,257.01 358.00,263.60"/>
    </edge>
    <edge id=":0_49" function="internal">
        <lane id=":0_49_0" index="0" speed="10.88" length="15.67" shape="347.47,250.85 350.20,252.20 353.65,256.95 354.80,263.60"/>
    </edge>
    <edge id=":0_50" function="internal">
        <lane id=":0_50_0" index="0" speed="10.36" length="15.61" shape="344.92,250.47 347.80,252.20 350.65,256.95 351.60,263.60"/>
    </edge>
    <edge id=":1_0" function="internal">
        <lane id=":1_0_0" index="0" speed="3.65" length="4.67" shape="650.00,248.40 651.20,249.20 651.60,250.00 651.20,250.80 650.00,251.60"/>
    </edge>
    <edge id=":2_0" function="internal">
        <lane id=":2_0_0" index="0" speed="3.65" length="4.67" shape="0.00,251.60 -1.20,250.80 -1.60,250.00 -1.20,249.20 0.00,248.40"/>
    </edge>
    <edge id=":3_0" function="internal">
        <lane id=":3_0_0" index="0" speed="3.65" length="4.67" shape="348.40,0.00 349.20,-1.20 350.00,-1.60 350.80,-1.20 351.60,0.00"/>
    </edge>
    <edge id=":4_0" function="internal">
        <lane id=":4_0_0" index="0" speed="3.65" length="4.67" shape="351.60,550.00 350.80,551.20 350.00,551.60 349.20,551.20 348.40,550.00"/>
    </edge>

    <edge id="2573a935d265469995d647fa5fe82599" from="0" to="2" priority="-1">
        <lane id="2573a935d265469995d647fa5fe82599_0" index="0" speed="45.00" length="336.40" shape="336.40,258.00 0.00,258.00"/>
        <lane id="2573a935d265469995d647fa5fe82599_1" index="1" speed="45.00" length="336.40" shape="336.40,254.80 0.00,254.80"/>
        <lane id="2573a935d265469995d647fa5fe82599_2" index="2" speed="45.00" length="336.40" shape="336.40,251.60 0.00,251.60"/>
    </edge>
    <edge id="2bf32d7d7b1545d58ea945a0c8a6e9a3" from="2" to="0" priority="-1">
        <lane id="2bf32d7d7b1545d58ea945a0c8a6e9a3_0" index="0" speed="45.00" length="336.40" shape="0.00,242.00 336.40,242.00"/>
        <lane id="2bf32d7d7b1545d58ea945a0c8a6e9a3_1" index="1" speed="45.00" length="336.40" shape="0.00,245.20 336.40,245.20"/>
        <lane id="2bf32d7d7b1545d58ea945a0c8a6e9a3_2" index="2" speed="45.00" length="336.40" shape="0.00,248.40 336.40,248.40"/>
    </edge>
    <edge id="488909c258004c9197c95f6f66bfec25" from="4" to="0" priority="-1">
        <lane id="488909c258004c9197c95f6f66bfec25_0" index="0" speed="45.00" length="286.40" shape="342.00,550.00 342.00,263.60"/>
        <lane id="488909c258004c9197c95f6f66bfec25_1" index="1" speed="45.00" length="286.40" shape="345.20,550.00 345.20,263.60"/>
        <lane id="488909c258004c9197c95f6f66bfec25_2" index="2" speed="45.00" length="286.40" shape="348.40,550.00 348.40,263.60"/>
    </edge>
    <edge id="54e2c0a3f63b4e869fb6c62c0255ac9c" from="1" to="0" priority="-1">
        <lane id="54e2c0a3f63b4e869fb6c62c0255ac9c_0" index="0" speed="45.00" length="283.20" shape="650.00,258.00 366.80,258.00"/>
        <lane id="54e2c0a3f63b4e869fb6c62c0255ac9c_1" index="1" speed="45.00" length="283.20" shape="650.00,254.80 366.80,254.80"/>
        <lane id="54e2c0a3f63b4e869fb6c62c0255ac9c_2" index="2" speed="45.00" length="283.20" shape="650.00,251.60 366.80,251.60"/>
    </edge>
    <edge id="671fe5d822ba4093b2d5163708378f19" from="0" to="4" priority="-1">
        <lane id="671fe5d822ba4093b2d5163708378f19_0" index="0" speed="45.00" length="286.40" shape="358.00,263.60 358.00,550.00"/>
        <lane id="671fe5d822ba4093b2d5163708378f19_1" index="1" speed="45.00" length="286.40" shape="354.80,263.60 354.80,550.00"/>
        <lane id="671fe5d822ba4093b2d5163708378f19_2" index="2" speed="45.00" length="286.40" shape="351.60,263.60 351.60,550.00"/>
    </edge>
    <edge id="9ca39900ffe44887838f1f77edaedb90" from="0" to="1" priority="-1">
        <lane id="9ca39900ffe44887838f1f77edaedb90_0" index="0" speed="45.00" length="283.20" shape="366.80,242.00 650.00,242.00"/>
        <lane id="9ca39900ffe44887838f1f77edaedb90_1" index="1" speed="45.00" length="283.20" shape="366.80,245.20 650.00,245.20"/>
        <lane id="9ca39900ffe44887838f1f77edaedb90_2" index="2" speed="45.00" length="283.20" shape="366.80,248.40 650.00,248.40"/>
    </edge>
    <edge id="d5435e6103b845a28b9a4c2ae1df2f02" from="0" to="3" priority="-1">
        <lane id="d5435e6103b845a28b9a4c2ae1df2f02_0" index="0" speed="45.00" length="236.40" shape="342.00,236.40 342.00,0.00"/>
        <lane id="d5435e6103b845a28b9a4c2ae1df2f02_1" index="1" speed="45.00" length="236.40" shape="345.20,236.40 345.20,0.00"/>
        <lane id="d5435e6103b845a28b9a4c2ae1df2f02_2" index="2" speed="45.00" length="236.40" shape="348.40,236.40 348.40,0.00"/>
    </edge>
    <edge id="fc4d9a75d45343a4a2523c713f5e727c" from="3" to="0" priority="-1">
        <lane id="fc4d9a75d45343a4a2523c713f5e727c_0" index="0" speed="45.00" length="236.40" shape="361.20,0.00 361.20,236.40"/>
        <lane id="fc4d9a75d45343a4a2523c713f5e727c_1" index="1" speed="45.00" length="236.40" shape="358.00,0.00 358.00,236.40"/>
        <lane id="fc4d9a75d45343a4a2523c713f5e727c_2" index="2" speed="45.00" length="236.40" shape="354.80,0.00 354.80,236.40"/>
        <lane id="fc4d9a75d45343a4a2523c713f5e727c_3" index="3" speed="45.00" length="236.40" shape="351.60,0.00 351.60,236.40"/>
    </edge>

    <tlLogic id="0" type="static" programID="0" offset="0">
        <phase duration="21" state="GGGGGGrrrrrrrrrrrrGGGGGGGGGrrrrrrrrrrrr"/>
        <phase duration="9"  state="yyyyyyrrrrrrrrrrrryyyyyyyyyrrrrrrrrrrrr"/>
        <phase duration="6"  state="rrrrrrGGGrrrrrrrrrrrrrrrrrrGGGrrrrrrrrr"/>
        <phase duration="9"  state="rrrrrryyyrrrrrrrrrrrrrrrrrryyyrrrrrrrrr"/>
        <phase duration="21" state="rrrrrrrrrGGGGGGrrrrrrrrrrrrrrrGGGGGGrrr"/>
        <phase duration="9"  state="rrrrrrrrryyyyyyrrrrrrrrrrrrrrryyyyyyrrr"/>
        <phase duration="6"  state="rrrrrrrrrrrrrrrGGGrrrrrrrrrrrrrrrrrrGGG"/>
        <phase duration="9"  state="rrrrrrrrrrrrrrryyyrrrrrrrrrrrrrrrrrryyy"/>
    </tlLogic>

    <junction id="0" type="traffic_light" x="350.00" y="250.00" incLanes="488909c258004c9197c95f6f66bfec25_0 488909c258004c9197c95f6f66bfec25_1 488909c258004c9197c95f6f66bfec25_2 54e2c0a3f63b4e869fb6c62c0255ac9c_0 54e2c0a3f63b4e869fb6c62c0255ac9c_1 54e2c0a3f63b4e869fb6c62c0255ac9c_2 fc4d9a75d45343a4a2523c713f5e727c_0 fc4d9a75d45343a4a2523c713f5e727c_1 fc4d9a75d45343a4a2523c713f5e727c_2 fc4d9a75d45343a4a2523c713f5e727c_3 2bf32d7d7b1545d58ea945a0c8a6e9a3_0 2bf32d7d7b1545d58ea945a0c8a6e9a3_1 2bf32d7d7b1545d58ea945a0c8a6e9a3_2" intLanes=":0_0_0 :0_1_0 :0_2_0 :0_3_0 :0_3_1 :0_3_2 :0_39_0 :0_40_0 :0_41_0 :0_9_0 :0_10_0 :0_11_0 :0_12_0 :0_12_1 :0_12_2 :0_42_0 :0_43_0 :0_44_0 :0_18_0 :0_19_0 :0_20_0 :0_21_0 :0_21_1 :0_21_2 :0_21_3 :0_21_4 :0_21_5 :0_45_0 :0_46_0 :0_47_0 :0_30_0 :0_31_0 :0_32_0 :0_33_0 :0_33_1 :0_33_2 :0_48_0 :0_49_0 :0_50_0" shape="340.40,263.60 359.60,263.60 360.40,261.38 361.40,260.60 362.80,260.04 364.60,259.71 366.80,259.60 366.80,240.40 364.58,239.96 363.80,239.40 363.24,238.62 362.91,237.62 362.80,236.40 340.40,236.40 339.96,238.62 339.40,239.40 338.62,239.96 337.62,240.29 336.40,240.40 336.40,259.60 338.62,260.04 339.40,260.60 339.96,261.38 340.29,262.38">
        <request index="0"  response="000000000000000000000000000000000000000" foes="000000000111000000000000111000000000000" cont="0"/>
        <request index="1"  response="000000000000000000000000000000000000000" foes="000000000111000000000000111000000000000" cont="0"/>
        <request index="2"  response="000000000000000000000000000000000000000" foes="000000000111000000000000111000000000000" cont="0"/>
        <request index="3"  response="111000000000000000000111000000000000000" foes="111111111111000000000111111000000000000" cont="0"/>
        <request index="4"  response="111000000000000000000111000000000000000" foes="111111111111000000000111111000000000000" cont="0"/>
        <request index="5"  response="111000000000000000000111000000000000000" foes="111111111111000000000111111000000000000" cont="0"/>
        <request index="6"  response="111000000000111111111111000000000000000" foes="111111000000111111111111111000000000000" cont="1"/>
        <request index="7"  response="111000000000111111111111000000000000000" foes="111111000000111111111111111000000000000" cont="1"/>
        <request index="8"  response="111000000000111111111111000000000000000" foes="111111000000111111111111111000000000000" cont="1"/>
        <request index="9"  response="000000000000111111000000000000000000000" foes="111000000000111111000000000000000000000" cont="0"/>
        <request index="10" response="000000000000111111000000000000000000000" foes="111000000000111111000000000000000000000" cont="0"/>
        <request index="11" response="000000000000111111000000000000000000000" foes="111000000000111111000000000000000000000" cont="0"/>
        <request index="12" response="000000000111111111000000000000111111111" foes="111000000111111111000000000000111111111" cont="0"/>
        <request index="13" response="000000000111111111000000000000111111111" foes="111000000111111111000000000000111111111" cont="0"/>
        <request index="14" response="000000000111111111000000000000111111111" foes="111000000111111111000000000000111111111" cont="0"/>
        <request index="15" response="000111111111111111000000000000111111000" foes="000111111111111111000000000000111111000" cont="1"/>
        <request index="16" response="000111111111111111000000000000111111000" foes="000111111111111111000000000000111111000" cont="1"/>
        <request index="17" response="000111111111111111000000000000111111000" foes="000111111111111111000000000000111111000" cont="1"/>
        <request index="18" response="000000000000000000000000000000000000000" foes="000111000000000000000000000000111000000" cont="0"/>
        <request index="19" response="000000000000000000000000000000000000000" foes="000111000000000000000000000000111000000" cont="0"/>
        <request index="20" response="000000000000000000000000000000000000000" foes="000111000000000000000000000000111000000" cont="0"/>
        <request index="21" response="111000000000001000000111000000000000000" foes="111111000000001000000111111111111000000" cont="0"/>
        <request index="22" response="111000000000010000000111000000000000000" foes="111111000000010000000111111111111000000" cont="0"/>
        <request index="23" response="111000000000100000000111000000000000000" foes="111111000000100000000111111111111000000" cont="0"/>
        <request index="24" response="111000000000000000000111000000000000000" foes="111111000000000001000111111111111000000" cont="0"/>
        <request index="25" response="111000000000000000000111000000000000000" foes="111111000000000010000111111111111000000" cont="0"/>
        <request index="26" response="111000000000000000000111000000000000000" foes="111111000000000100000111111111111000000" cont="0"/>
        <request index="27" response="111000000000000000000111000000000111111" foes="111111000000000000000111111000000111111" cont="1"/>
        <request index="28" response="111000000000000000000111000000000111111" foes="111111000000000000000111111000000111111" cont="1"/>
        <request index="29" response="111000000000000000000111000000000111111" foes="111111000000000000000111111000000111111" cont="1"/>
        <request index="30" response="000000000000000000000000000000000111000" foes="000000000000000000000111000000000111000" cont="0"/>
        <request index="31" response="000000000000000000000000000000000111000" foes="000000000000000000000111000000000111000" cont="0"/>
        <request index="32" response="000000000000000000000000000000000111000" foes="000000000000000000000111000000000111000" cont="0"/>
        <request index="33" response="000000000111111111111000000000111111000" foes="000000000111111111111111000000111111000" cont="0"/>
        <request index="34" response="000000000111111111111000000000111111000" foes="000000000111111111111111000000111111000" cont="0"/>
        <request index="35" response="000000000111111111111000000000111111000" foes="000000000111111111111111000000111111000" cont="0"/>
        <request index="36" response="000000000111111111000000111111111111000" foes="000000000111111111000000111111111111000" cont="1"/>
        <request index="37" response="000000000111111111000000111111111111000" foes="000000000111111111000000111111111111000" cont="1"/>
        <request index="38" response="000000000111111111000000111111111111000" foes="000000000111111111000000111111111111000" cont="1"/>
    </junction>
    <junction id="1" type="priority" x="650.00" y="250.00" incLanes="9ca39900ffe44887838f1f77edaedb90_0 9ca39900ffe44887838f1f77edaedb90_1 9ca39900ffe44887838f1f77edaedb90_2" intLanes=":1_0_0" shape="650.00,250.00 650.00,240.40 650.00,250.00">
        <request index="0" response="0" foes="0" cont="0"/>
    </junction>
    <junction id="2" type="priority" x="0.00" y="250.00" incLanes="2573a935d265469995d647fa5fe82599_0 2573a935d265469995d647fa5fe82599_1 2573a935d265469995d647fa5fe82599_2" intLanes=":2_0_0" shape="0.00,250.00 0.00,259.60 0.00,250.00">
        <request index="0" response="0" foes="0" cont="0"/>
    </junction>
    <junction id="3" type="priority" x="350.00" y="0.00" incLanes="d5435e6103b845a28b9a4c2ae1df2f02_0 d5435e6103b845a28b9a4c2ae1df2f02_1 d5435e6103b845a28b9a4c2ae1df2f02_2" intLanes=":3_0_0" shape="350.00,0.00 340.40,0.00 350.00,0.00">
        <request index="0" response="0" foes="0" cont="0"/>
    </junction>
    <junction id="4" type="priority" x="350.00" y="550.00" incLanes="671fe5d822ba4093b2d5163708378f19_0 671fe5d822ba4093b2d5163708378f19_1 671fe5d822ba4093b2d5163708378f19_2" intLanes=":4_0_0" shape="350.00,550.00 359.60,550.00 350.00,550.00">
        <request index="0" response="0" foes="0" cont="0"/>
    </junction>

    <junction id=":0_39_0" type="internal" x="350.63" y="254.67" incLanes=":0_6_0 fc4d9a75d45343a4a2523c713f5e727c_0 fc4d9a75d45343a4a2523c713f5e727c_1 fc4d9a75d45343a4a2523c713f5e727c_2" intLanes=":0_12_0 :0_12_1 :0_12_2 :0_15_0 :0_16_0 :0_17_0 :0_18_0 :0_19_0 :0_20_0 :0_21_0 :0_21_1 :0_21_2 :0_21_3 :0_21_4 :0_21_5 :0_33_0 :0_33_1 :0_33_2 :0_36_0 :0_37_0 :0_38_0"/>
    <junction id=":0_40_0" type="internal" x="350.91" y="253.28" incLanes=":0_7_0 fc4d9a75d45343a4a2523c713f5e727c_0 fc4d9a75d45343a4a2523c713f5e727c_1 fc4d9a75d45343a4a2523c713f5e727c_2" intLanes=":0_12_0 :0_12_1 :0_12_2 :0_15_0 :0_16_0 :0_17_0 :0_18_0 :0_19_0 :0_20_0 :0_21_0 :0_21_1 :0_21_2 :0_21_3 :0_21_4 :0_21_5 :0_33_0 :0_33_1 :0_33_2 :0_36_0 :0_37_0 :0_38_0"/>
    <junction id=":0_41_0" type="internal" x="350.49" y="255.66" incLanes=":0_8_0 fc4d9a75d45343a4a2523c713f5e727c_0 fc4d9a75d45343a4a2523c713f5e727c_1 fc4d9a75d45343a4a2523c713f5e727c_2" intLanes=":0_12_0 :0_12_1 :0_12_2 :0_15_0 :0_16_0 :0_17_0 :0_18_0 :0_19_0 :0_20_0 :0_21_0 :0_21_1 :0_21_2 :0_21_3 :0_21_4 :0_21_5 :0_33_0 :0_33_1 :0_33_2 :0_36_0 :0_37_0 :0_38_0"/>
    <junction id=":0_42_0" type="internal" x="353.45" y="248.75" incLanes=":0_15_0 2bf32d7d7b1545d58ea945a0c8a6e9a3_0 2bf32d7d7b1545d58ea945a0c8a6e9a3_1" intLanes=":0_3_0 :0_3_1 :0_3_2 :0_6_0 :0_7_0 :0_8_0 :0_21_0 :0_21_1 :0_21_2 :0_21_3 :0_21_4 :0_21_5 :0_27_0 :0_28_0 :0_29_0 :0_30_0 :0_31_0 :0_32_0 :0_33_0 :0_33_1 :0_33_2"/>
    <junction id=":0_43_0" type="internal" x="355.57" y="249.13" incLanes=":0_16_0 2bf32d7d7b1545d58ea945a0c8a6e9a3_0 2bf32d7d7b1545d58ea945a0c8a6e9a3_1" intLanes=":0_3_0 :0_3_1 :0_3_2 :0_6_0 :0_7_0 :0_8_0 :0_21_0 :0_21_1 :0_21_2 :0_21_3 :0_21_4 :0_21_5 :0_27_0 :0_28_0 :0_29_0 :0_30_0 :0_31_0 :0_32_0 :0_33_0 :0_33_1 :0_33_2"/>
    <junction id=":0_44_0" type="internal" x="355.73" y="249.15" incLanes=":0_17_0 2bf32d7d7b1545d58ea945a0c8a6e9a3_0 2bf32d7d7b1545d58ea945a0c8a6e9a3_1" intLanes=":0_3_0 :0_3_1 :0_3_2 :0_6_0 :0_7_0 :0_8_0 :0_21_0 :0_21_1 :0_21_2 :0_21_3 :0_21_4 :0_21_5 :0_27_0 :0_28_0 :0_29_0 :0_30_0 :0_31_0 :0_32_0 :0_33_0 :0_33_1 :0_33_2"/>
    <junction id=":0_45_0" type="internal" x="348.70" y="248.65" incLanes=":0_27_0 488909c258004c9197c95f6f66bfec25_0 488909c258004c9197c95f6f66bfec25_1" intLanes=":0_0_0 :0_1_0 :0_2_0 :0_3_0 :0_3_1 :0_3_2 :0_12_0 :0_12_1 :0_12_2 :0_15_0 :0_16_0 :0_17_0 :0_33_0 :0_33_1 :0_33_2 :0_36_0 :0_37_0 :0_38_0"/>
    <junction id=":0_46_0" type="internal" x="348.79" y="248.20" incLanes=":0_28_0 488909c258004c9197c95f6f66bfec25_0 488909c258004c9197c95f6f66bfec25_1" intLanes=":0_0_0 :0_1_0 :0_2_0 :0_3_0 :0_3_1 :0_3_2 :0_12_0 :0_12_1 :0_12_2 :0_15_0 :0_16_0 :0_17_0 :0_33_0 :0_33_1 :0_33_2 :0_36_0 :0_37_0 :0_38_0"/>
    <junction id=":0_47_0" type="internal" x="349.41" y="245.12" incLanes=":0_29_0 488909c258004c9197c95f6f66bfec25_0 488909c258004c9197c95f6f66bfec25_1" intLanes=":0_0_0 :0_1_0 :0_2_0 :0_3_0 :0_3_1 :0_3_2 :0_12_0 :0_12_1 :0_12_2 :0_15_0 :0_16_0 :0_17_0 :0_33_0 :0_33_1 :0_33_2 :0_36_0 :0_37_0 :0_38_0"/>
    <junction id=":0_48_0" type="internal" x="347.63" y="250.87" incLanes=":0_36_0 54e2c0a3f63b4e869fb6c62c0255ac9c_0 54e2c0a3f63b4e869fb6c62c0255ac9c_1" intLanes=":0_3_0 :0_3_1 :0_3_2 :0_6_0 :0_7_0 :0_8_0 :0_9_0 :0_10_0 :0_11_0 :0_12_0 :0_12_1 :0_12_2 :0_21_0 :0_21_1 :0_21_2 :0_21_3 :0_21_4 :0_21_5 :0_27_0 :0_28_0 :0_29_0"/>
    <junction id=":0_49_0" type="internal" x="347.47" y="250.85" incLanes=":0_37_0 54e2c0a3f63b4e869fb6c62c0255ac9c_0 54e2c0a3f63b4e869fb6c62c0255ac9c_1" intLanes=":0_3_0 :0_3_1 :0_3_2 :0_6_0 :0_7_0 :0_8_0 :0_9_0 :0_10_0 :0_11_0 :0_12_0 :0_12_1 :0_12_2 :0_21_0 :0_21_1 :0_21_2 :0_21_3 :0_21_4 :0_21_5 :0_27_0 :0_28_0 :0_29_0"/>
    <junction id=":0_50_0" type="internal" x="344.92" y="250.47" incLanes=":0_38_0 54e2c0a3f63b4e869fb6c62c0255ac9c_0 54e2c0a3f63b4e869fb6c62c0255ac9c_1" intLanes=":0_3_0 :0_3_1 :0_3_2 :0_6_0 :0_7_0 :0_8_0 :0_9_0 :0_10_0 :0_11_0 :0_12_0 :0_12_1 :0_12_2 :0_21_0 :0_21_1 :0_21_2 :0_21_3 :0_21_4 :0_21_5 :0_27_0 :0_28_0 :0_29_0"/>

    <connection from="2573a935d265469995d647fa5fe82599" to="2bf32d7d7b1545d58ea945a0c8a6e9a3" fromLane="2" toLane="2" via=":2_0_0" dir="t" state="M"/>
    <connection from="2bf32d7d7b1545d58ea945a0c8a6e9a3" to="d5435e6103b845a28b9a4c2ae1df2f02" fromLane="0" toLane="0" via=":0_30_0" tl="0" linkIndex="30" dir="r" state="o"/>
    <connection from="2bf32d7d7b1545d58ea945a0c8a6e9a3" to="d5435e6103b845a28b9a4c2ae1df2f02" fromLane="0" toLane="1" via=":0_31_0" tl="0" linkIndex="31" dir="r" state="o"/>
    <connection from="2bf32d7d7b1545d58ea945a0c8a6e9a3" to="d5435e6103b845a28b9a4c2ae1df2f02" fromLane="0" toLane="2" via=":0_32_0" tl="0" linkIndex="32" dir="r" state="o"/>
    <connection from="2bf32d7d7b1545d58ea945a0c8a6e9a3" to="9ca39900ffe44887838f1f77edaedb90" fromLane="1" toLane="0" via=":0_33_0" tl="0" linkIndex="33" dir="s" state="o"/>
    <connection from="2bf32d7d7b1545d58ea945a0c8a6e9a3" to="9ca39900ffe44887838f1f77edaedb90" fromLane="1" toLane="1" via=":0_33_1" tl="0" linkIndex="34" dir="s" state="o"/>
    <connection from="2bf32d7d7b1545d58ea945a0c8a6e9a3" to="9ca39900ffe44887838f1f77edaedb90" fromLane="1" toLane="2" via=":0_33_2" tl="0" linkIndex="35" dir="s" state="o"/>
    <connection from="2bf32d7d7b1545d58ea945a0c8a6e9a3" to="671fe5d822ba4093b2d5163708378f19" fromLane="2" toLane="0" via=":0_36_0" tl="0" linkIndex="36" dir="l" state="o"/>
    <connection from="2bf32d7d7b1545d58ea945a0c8a6e9a3" to="671fe5d822ba4093b2d5163708378f19" fromLane="2" toLane="1" via=":0_37_0" tl="0" linkIndex="37" dir="l" state="o"/>
    <connection from="2bf32d7d7b1545d58ea945a0c8a6e9a3" to="671fe5d822ba4093b2d5163708378f19" fromLane="2" toLane="2" via=":0_38_0" tl="0" linkIndex="38" dir="l" state="o"/>
    <connection from="488909c258004c9197c95f6f66bfec25" to="2573a935d265469995d647fa5fe82599" fromLane="0" toLane="0" via=":0_0_0" tl="0" linkIndex="0" dir="r" state="O"/>
    <connection from="488909c258004c9197c95f6f66bfec25" to="2573a935d265469995d647fa5fe82599" fromLane="0" toLane="1" via=":0_1_0" tl="0" linkIndex="1" dir="r" state="O"/>
    <connection from="488909c258004c9197c95f6f66bfec25" to="2573a935d265469995d647fa5fe82599" fromLane="0" toLane="2" via=":0_2_0" tl="0" linkIndex="2" dir="r" state="O"/>
    <connection from="488909c258004c9197c95f6f66bfec25" to="d5435e6103b845a28b9a4c2ae1df2f02" fromLane="1" toLane="0" via=":0_3_0" tl="0" linkIndex="3" dir="s" state="O"/>
    <connection from="488909c258004c9197c95f6f66bfec25" to="d5435e6103b845a28b9a4c2ae1df2f02" fromLane="1" toLane="1" via=":0_3_1" tl="0" linkIndex="4" dir="s" state="O"/>
    <connection from="488909c258004c9197c95f6f66bfec25" to="d5435e6103b845a28b9a4c2ae1df2f02" fromLane="1" toLane="2" via=":0_3_2" tl="0" linkIndex="5" dir="s" state="O"/>
    <connection from="488909c258004c9197c95f6f66bfec25" to="9ca39900ffe44887838f1f77edaedb90" fromLane="2" toLane="0" via=":0_6_0" tl="0" linkIndex="6" dir="l" state="o"/>