<connections>
  <connection from="488909c258004c9197c95f6f66bfec25" fromLane="2" to="9ca39900ffe44887838f1f77edaedb90" toLane="2" />
  <connection from="488909c258004c9197c95f6f66bfec25" fromLane="2" to="9ca39900ffe44887838f1f77edaedb90" toLane="1" />
  <connection from="488909c258004c9197c95f6f66bfec25" fromLane="2" to="9ca39900ffe44887838f1f77edaedb90" toLane="0" />
  <connection from="488909c258004c9197c95f6f66bfec25" fromLane="1" to="d5435e6103b845a28b9a4c2ae1df2f02" toLane="2" />
  <connection from="488909c258004c9197c95f6f66bfec25" fromLane="1" to="d5435e6103b845a28b9a4c2ae1df2f02" toLane="1" />
  <connection from="488909c258004c9197c95f6f66bfec25" fromLane="1" to="d5435e6103b845a28b9a4c2ae1df2f02" toLane="0" />
  <connection from="488909c258004c9197c95f6f66bfec25" fromLane="0" to="2573a935d265469995d647fa5fe82599" toLane="2" />
  <connection from="488909c258004c9197c95f6f66bfec25" fromLane="0" to="2573a935d265469995d647fa5fe82599" toLane="1" />
  <connection from="488909c258004c9197c95f6f66bfec25" fromLane="0" to="2573a935d265469995d647fa5fe82599" toLane="0" />
  <connection from="54e2c0a3f63b4e869fb6c62c0255ac9c" fromLane="2" to="d5435e6103b845a28b9a4c2ae1df2f02" toLane="2" />
  <connection from="54e2c0a3f63b4e869fb6c62c0255ac9c" fromLane="2" to="d5435e6103b845a28b9a4c2ae1df2f02" toLane="1" />
  <connection from="54e2c0a3f63b4e869fb6c62c0255ac9c" fromLane="2" to="d5435e6103b845a28b9a4c2ae1df2f02" toLane="0" />
  <connection from="54e2c0a3f63b4e869fb6c62c0255ac9c" fromLane="1" to="2573a935d265469995d647fa5fe82599" toLane="2" />
  <connection from="54e2c0a3f63b4e869fb6c62c0255ac9c" fromLane="1" to="2573a935d265469995d647fa5fe82599" toLane="1" />
  <connection from="54e2c0a3f63b4e869fb6c62c0255ac9c" fromLane="1" to="2573a935d265469995d647fa5fe82599" toLane="0" />
  <connection from="54e2c0a3f63b4e869fb6c62c0255ac9c" fromLane="0" to="671fe5d822ba4093b2d5163708378f19" toLane="2" />
  <connection from="54e2c0a3f63b4e869fb6c62c0255ac9c" fromLane="0" to="671fe5d822ba4093b2d5163708378f19" toLane="1" />
  <connection from="54e2c0a3f63b4e869fb6c62c0255ac9c" fromLane="0" to="671fe5d822ba4093b2d5163708378f19" toLane="0" />
  <connection from="fc4d9a75d45343a4a2523c713f5e727c" fromLane="3" to="2573a935d265469995d647fa5fe82599" toLane="2" />
  <connection from="fc4d9a75d45343a4a2523c713f5e727c" fromLane="3" to="2573a935d265469995d647fa5fe82599" toLane="1" />
  <connection from="fc4d9a75d45343a4a2523c713f5e727c" fromLane="3" to="2573a935d265469995d647fa5fe82599" toLane="0" />
  <connection from="fc4d9a75d45343a4a2523c713f5e727c" fromLane="2" to="671fe5d822ba4093b2d5163708378f19" toLane="2" />
  <connection from="fc4d9a75d45343a4a2523c713f5e727c" fromLane="2" to="671fe5d822ba4093b2d5163708378f19" toLane="1" />
  <connection from="fc4d9a75d45343a4a2523c713f5e727c" fromLane="2" to="671fe5d822ba4093b2d5163708378f19" toLane="0" />
  <connection from="fc4d9a75d45343a4a2523c713f5e727c" fromLane="1" to="671fe5d822ba4093b2d5163708378f19" toLane="2" />
  <connection from="fc4d9a75d45343a4a2523c713f5e727c" fromLane="1" to="671fe5d822ba4093b2d5163708378f19" toLane="1" />
  <connection from="fc4d9a75d45343a4a2523c713f5e727c" fromLane="1" to="671fe5d822ba4093b2d5163708378f19" toLane="0" />
  <connection from="fc4d9a75d45343a4a2523c713f5e727c" fromLane="0" to="9ca39900ffe44887838f1f77edaedb90" toLane="2" />
  <connection from="fc4d9a75d45343a4a2523c713f5e727c" fromLane="0" to="9ca39900ffe44887838f1f77edaedb90" toLane="1" />
  <connection from="fc4d9a75d45343a4a2523c713f5e727c" fromLane="0" to="9ca39900ffe44887838f1f77edaedb90" toLane="0" />
  <connection from="2bf32d7d7b1545d58ea945a0c8a6e9a3" fromLane="2" to="671fe5d822ba4093b2d5163708378f19" toLane="2" />
  <connection from="2bf32d7d7b1545d58ea945a0c8a6e9a3" fromLane="2" to="671fe5d822ba4093b2d5163708378f19" toLane="1" />
  <connection from="2bf32d7d7b1545d58ea945a0c8a6e9a3" fromLane="2" to="671fe5d822ba4093b2d5163708378f19" toLane="0" />
  <connection from="2bf32d7d7b1545d58ea945a0c8a6e9a3" fromLane="1" to="9ca39900ffe44887838f1f77edaedb90" toLane="2" />
  <connection from="2bf32d7d7b1545d58ea945a0c8a6e9a3" fromLane="1" to="9ca39900ffe44887838f1f77edaedb90" toLane="1" />
  <connection from="2bf32d7d7b1545d58ea945a0c8a6e9a3" fromLane="1" to="9ca39900ffe44887838f1f77edaedb90" toLane="0" />
  <connection from="2bf32d7d7b1545d58ea945a0c8a6e9a3" fromLane="0" to="d5435e6103b845a28b9a4c2ae1df2f02" toLane="2" />
  <connection from="2bf32d7d7b1545d58ea945a0c8a6e9a3" fromLane="0" to="d5435e6103b845a28b9a4c2ae1df2f02" toLane="1" />
  <connection from="2bf32d7d7b1545d58ea945a0c8a6e9a3" fromLane="0" to="d5435e6103b845a28b9a4c2ae1df2f02" toLane="0" />
</connections>